test/data/matpower/multi_nw/bus_37/pypsa-eur_multinetwork_37/mpc_012_007.m
function mpc = mpc_012_007
%MPC_012_007	Extended MATPOWER case file generated from aggregated PyPSA generator and load data
%	Period: 12 	Weight: 8
%	Time step: 7

%%	MATPOWER Case Format : Version 2
mpc.version = '2';

%% system MVA base
mpc.baseMVA = 100;

%% Weight
mpc.weight = 8;

%% bus data
%	bus_i	type	Pd	Qd	Gs	Bs	area	Vm	Va	baseKV	zone	Vmax	Vmin
mpc.bus = [
	1	2	608.893817402754	0.0	0.0	0.0	1	1.0	0.0	230.0	1	1.1	0.9;	%AL1 0
	2	2	10690.339708257206	0.0	0.0	0.0	2	1.0	0.0	230.0	1	1.1	0.9;	%AT1 0
	3	2	1686.878880313463	0.0	0.0	0.0	3	1.0	0.0	230.0	1	1.1	0.9;	%BA1 0
	4	2	11453.920308827363	0.0	0.0	0.0	4	1.0	0.0	230.0	1	1.1	0.9;	%BE1 0
	5	2	5587.736757620781	0.0	0.0	0.0	5	1.0	0.0	230.0	1	1.1	0.9;	%BG1 0
	6	2	7186.891044607713	0.0	0.0	0.0	6	1.0	0.0	230.0	1	1.1	0.9;	%CH1 0
	7	2	9287.306453873152	0.0	0.0	0.0	7	1.0	0.0	230.0	1	1.1	0.9;	%CZ1 0
	8	2	69198.58459102672	0.0	0.0	0.0	8	1.0	0.0	230.0	1	1.1	0.9;	%DE1 0
	9	2	3055.946377066776	0.0	0.0	0.0	9	1.0	0.0	230.0	1	1.1	0.9;	%DK1 0
	10	2	2333.8921681071165	0.0	0.0	0.0	10	1.0	0.0	230.0	1	1.1	0.9;	%DK2 0
	11	2	1350.1440539608548	0.0	0.0	0.0	11	1.0	0.0	230.0	1	1.1	0.9;	%EE6 0
	12	2	32045.853806246163	0.0	0.0	0.0	12	1.0	0.0	230.0	1	1.1	0.9;	%ES1 0
	13	2	692.6566033594779	0.0	0.0	0.0	13	1.0	0.0	230.0	1	1.1	0.9;	%ES4 0
	14	2	12695.310899016573	0.0	0.0	0.0	14	1.0	0.0	230.0	1	1.1	0.9;	%FI2 0
	15	2	76287.98779301168	0.0	0.0	0.0	15	1.0	0.0	230.0	1	1.1	0.9;	%FR1 0
	16	2	42694.03168419638	0.0	0.0	0.0	16	1.0	0.0	230.0	1	1.1	0.9;	%GB0 0
	17	2	1051.3777877496827	0.0	0.0	0.0	17	1.0	0.0	230.0	1	1.1	0.9;	%GB5 0
	18	2	6314.046295430224	0.0	0.0	0.0	18	1.0	0.0	230.0	1	1.1	0.9;	%GR1 0
	19	2	2406.117805874123	0.0	0.0	0.0	19	1.0	0.0	230.0	1	1.1	0.9;	%HR1 0
	20	2	5280.556390838929	0.0	0.0	0.0	20	1.0	0.0	230.0	1	1.1	0.9;	%HU1 0
	21	2	3160.4268160657475	0.0	0.0	0.0	21	1.0	0.0	230.0	1	1.1	0.9;	%IE5 0
	22	2	44442.47840627389	0.0	0.0	0.0	22	1.0	0.0	230.0	1	1.1	0.9;	%IT1 0
	23	2	2458.2198831702717	0.0	0.0	0.0	23	1.0	0.0	230.0	1	1.1	0.9;	%IT3 0
	24	2	1694.4214407148063	0.0	0.0	0.0	24	1.0	0.0	230.0	1	1.1	0.9;	%LT6 0
	25	2	949.1964364047693	0.0	0.0	0.0	25	1.0	0.0	230.0	1	1.1	0.9;	%LU1 0
	26	2	1242.9522470274242	0.0	0.0	0.0	26	1.0	0.0	230.0	1	1.1	0.9;	%LV6 0
	27	2	490.1760479555648	0.0	0.0	0.0	27	1.0	0.0	230.0	1	1.1	0.9;	%ME1 0
	28	2	1098.9790850683855	0.0	0.0	0.0	28	1.0	0.0	230.0	1	1.1	0.9;	%MK1 0
	29	2	15824.862114907415	0.0	0.0	0.0	29	1.0	0.0	230.0	1	1.1	0.9;	%NL1 0
	30	2	19733.393216483626	0.0	0.0	0.0	30	1.0	0.0	230.0	1	1.1	0.9;	%NO2 0
	31	2	19706.554242607577	0.0	0.0	0.0	31	1.0	0.0	230.0	1	1.1	0.9;	%PL1 0
	32	2	5197.1840898913315	0.0	0.0	0.0	32	1.0	0.0	230.0	1	1.1	0.9;	%PT1 0
	33	2	7628.631099079116	0.0	0.0	0.0	33	1.0	0.0	230.0	1	1.1	0.9;	%RO1 0
	34	2	5882.3130076312955	0.0	0.0	0.0	34	1.0	0.0	230.0	1	1.1	0.9;	%RS1 0
	35	2	21918.154898406287	0.0	0.0	0.0	35	1.0	0.0	230.0	1	1.1	0.9;	%SE2 0
	36	2	1844.0571459925807	0.0	0.0	0.0	36	1.0	0.0	230.0	1	1.1	0.9;	%SI1 0
	37	2	3903.6772696714434	0.0	0.0	0.0	37	1.0	0.0	230.0	1	1.1	0.9;	%SK1 0
];

%% generator data
%	bus	Pg	Qg	Qmax	Qmin	Vg	mBase	status	Pmax	Pmin	H	n0	nE	nE_max	P_b_nom	carrier
mpc.gen = [
	1	0.0	0.0	0.0	-0.0	1.0	100.0	1	224.0	78.4	5.0	0	0	500	224.0	0;	%AL1 0 CCGT
	1	0.0	0.0	0.0	-0.0	1.0	100.0	1	224.0	78.4	2.8	0	0	500	224.0	1;	%AL1 0 OCGT
	1	0.0	0.0	0.0	-0.0	1.0	100.0	1	1.4755834917424946	0.0	0.0	0	0	5500	17.0	2;	%AL1 0 offwind
	1	0.0	0.0	0.0	-0.0	1.0	100.0	1	44.92727152904733	0.0	2.8	2	2	2	50.0	3;	%AL1 0 oil
	1	0.0	0.0	0.0	-0.0	1.0	100.0	1	1.052148051756184	0.0	0.0	0	0	2500	38.0	4;	%AL1 0 onwind
	1	0.0	0.0	0.0	-0.0	1.0	100.0	1	20.585888304740294	0.0	3.5	2	2	2	26.0	5;	%AL1 0 ror
	1	0.0	0.0	0.0	-0.0	1.0	100.0	1	2.9407895931924486	0.0	0.0	1	1	3400	28.0	6;	%AL1 0 solar
	2	0.0	0.0	0.0	-0.0	1.0	100.0	1	217.66500000000002	78.4	5.0	20	20	13100	224.0	0;	%AT1 0 CCGT
	2	0.0	0.0	0.0	-0.0	1.0	100.0	1	224.0	78.4	2.8	0	0	13100	224.0	1;	%AT1 0 OCGT
	2	0.0	0.0	0.0	-0.0	1.0	100.0	1	25.229289531660186	0.0	0.0	85	85	76700	38.0	4;	%AT1 0 onwind
	2	0.0	0.0	0.0	-0.0	1.0	100.0	1	8.961056111162705	0.0	3.5	184	184	184	26.0	5;	%AT1 0 ror
	2	0.0	0.0	0.0	-0.0	1.0	100.0	1	0.9321914994174543	0.0	0.0	80	80	104100	28.0	6;	%AT1 0 solar
	3	0.0	0.0	0.0	-0.0	1.0	100.0	1	224.0	78.4	5.0	0	0	1100	224.0	0;	%BA1 0 CCGT
	3	0.0	0.0	0.0	-0.0	1.0	100.0	1	224.0	78.4	2.8	0	0	1100	224.0	1;	%BA1 0 OCGT
	3	0.0	0.0	0.0	-0.0	1.0	100.0	1	209.5	110.0	3.0	4	4	4	275.0	7;	%BA1 0 lignite
	3	0.0	0.0	0.0	-0.0	1.0	100.0	1	0.36087938015684157	0.0	0.0	3	3	6100	38.0	4;	%BA1 0 onwind
	3	0.0	0.0	0.0	-0.0	1.0	100.0	1	1.8363845019904075	0.0	0.0	2	2	8200	28.0	6;	%BA1 0 solar
	4	0.0	0.0	0.0	-0.0	1.0	100.0	1	219.53809523809525	78.4	5.0	21	21	13800	224.0	0;	%BE1 0 CCGT
	4	0.0	0.0	0.0	-0.0	1.0	100.0	1	224.0	78.4	2.8	0	0	13800	224.0	1;	%BE1 0 OCGT
	4	0.0	0.0	0.0	-0.0	1.0	100.0	1	9.925925925925926	2.0436	2.8	27	27	27	10.0	8;	%BE1 0 biomass
	4	0.0	0.0	0.0	-0.0	1.0	100.0	1	29.914090731989255	0.0	0.0	137	137	180700	17.0	2;	%BE1 0 offwind
	4	0.0	0.0	0.0	-0.0	1.0	100.0	1	37.50492307692308	0.0	0.0	65	65	80900	38.0	4;	%BE1 0 onwind
	4	0.0	0.0	0.0	-0.0	1.0	100.0	1	18.744003681974412	0.0	3.5	4	4	4	26.0	5;	%BE1 0 ror
	4	0.0	0.0	0.0	-0.0	1.0	100.0	1	0.0	0.0	0.0	202	202	109700	28.0	6;	%BE1 0 solar
	5	0.0	0.0	0.0	-0.0	1.0	100.0	1	224.0	78.4	5.0	0	0	5000	224.0	0;	%BG1 0 CCGT
	5	0.0	0.0	0.0	-0.0	1.0	100.0	1	224.0	78.4	2.8	0	0	5000	224.0	1;	%BG1 0 OCGT
	5	0.0	0.0	0.0	-0.0	1.0	100.0	1	160.41703044199232	89.375	3.0	1	1	1	275.0	9;	%BG1 0 coal
	5	0.0	0.0	0.0	-0.0	1.0	100.0	1	242.52278758367152	110.0	3.0	6	6	6	275.0	7;	%BG1 0 lignite
	5	0.0	0.0	0.0	-0.0	1.0	100.0	1	693.3333333333334	500.0	5.5	3	3	3	1000.0	10;	%BG1 0 nuclear
	5	0.0	0.0	0.0	-0.0	1.0	100.0	1	6.264295878196677	0.0	0.0	0	0	65700	17.0	2;	%BG1 0 offwind
	5	0.0	0.0	0.0	-0.0	1.0	100.0	1	2.410300112234811	0.0	0.0	19	19	29400	38.0	4;	%BG1 0 onwind
	5	0.0	0.0	0.0	-0.0	1.0	100.0	1	5.0688837167244	0.0	3.5	5	5	5	26.0	5;	%BG1 0 ror
	5	0.0	0.0	0.0	-0.0	1.0	100.0	1	2.2594134803915353	0.0	0.0	39	39	39900	28.0	6;	%BG1 0 solar
	6	0.0	0.0	0.0	-0.0	1.0	100.0	1	224.0	78.4	5.0	0	0	9700	224.0	0;	%CH1 0 CCGT
	6	0.0	0.0	0.0	-0.0	1.0	100.0	1	224.0	78.4	2.8	0	0	9700	224.0	1;	%CH1 0 OCGT
	6	0.0	0.0	0.0	-0.0	1.0	100.0	1	9.861652941176471	2.0436	2.8	34	34	34	10.0	8;	%CH1 0 biomass
	6	0.0	0.0	0.0	-0.0	1.0	100.0	1	990.0	500.0	5.5	3	3	3	1000.0	10;	%CH1 0 nuclear
	6	0.0	0.0	0.0	-0.0	1.0	100.0	1	10.012838364837373	0.0	0.0	3	3	56800	38.0	4;	%CH1 0 onwind
	6	0.0	0.0	0.0	-0.0	1.0	100.0	1	3.8307834631724558	0.0	3.5	171	171	171	26.0	5;	%CH1 0 ror
	6	0.0	0.0	0.0	-0.0	1.0	100.0	1	0.0	0.0	0.0	106	106	77100	28.0	6;	%CH1 0 solar
	7	0.0	0.0	0.0	-0.0	1.0	100.0	1	197.38	78.4	5.0	5	5	10200	224.0	0;	%CZ1 0 CCGT
	7	0.0	0.0	0.0	-0.0	1.0	100.0	1	224.0	78.4	2.8	0	0	10200	224.0	1;	%CZ1 0 OCGT
	7	0.0	0.0	0.0	-0.0	1.0	100.0	1	259.384773901276	110.0	3.0	14	14	14	275.0	7;	%CZ1 0 lignite
	7	0.0	0.0	0.0	-0.0	1.0	100.0	1	858.0	500.0	5.5	5	5	5	1000.0	10;	%CZ1 0 nuclear
	7	0.0	0.0	0.0	-0.0	1.0	100.0	1	31.8181874704715	0.0	0.0	9	9	59800	38.0	4;	%CZ1 0 onwind
	7	0.0	0.0	0.0	-0.0	1.0	100.0	1	9.26164911513545	0.0	3.5	2	2	2	26.0	5;	%CZ1 0 ror
	7	0.0	0.0	0.0	-0.0	1.0	100.0	1	0.5728556008798779	0.0	0.0	75	75	81200	28.0	6;	%CZ1 0 solar
	8	0.0	0.0	0.0	-0.0	1.0	100.0	1	223.36530288461537	78.4	5.0	104	104	160700	224.0	0;	%DE1 0 CCGT
	8	0.0	0.0	0.0	-0.0	1.0	100.0	1	78.4	78.4	2.8	1	1	160700	224.0	1;	%DE1 0 OCGT
	8	0.0	0.0	0.0	-0.0	1.0	100.0	1	9.993322844919787	2.0436	2.8	748	748	748	10.0	8;	%DE1 0 biomass
	8	0.0	0.0	0.0	-0.0	1.0	100.0	1	271.4126525154921	89.375	3.0	33	33	33	275.0	9;	%DE1 0 coal
	8	0.0	0.0	0.0	-0.0	1.0	100.0	1	272.8539328301224	110.0	3.0	77	77	77	275.0	7;	%DE1 0 lignite
	8	0.0	0.0	0.0	-0.0	1.0	100.0	1	30.087939730919416	0.0	0.0	456	456	2117500	17.0	2;	%DE1 0 offwind
	8	0.0	0.0	0.0	-0.0	1.0	100.0	1	48.949999999999996	0.0	2.8	18	18	18	50.0	3;	%DE1 0 oil
	8	0.0	0.0	0.0	-0.0	1.0	100.0	1	33.37209895640848	0.0	0.0	1431	1431	947300	38.0	4;	%DE1 0 onwind
	8	0.0	0.0	0.0	-0.0	1.0	100.0	1	23.772663796979554	0.0	3.5	99	99	99	26.0	5;	%DE1 0 ror
	8	0.0	0.0	0.0	-0.0	1.0	100.0	1	0.0	0.0	0.0	1919	1919	1285600	28.0	6;	%DE1 0 solar
	9	0.0	0.0	0.0	-0.0	1.0	100.0	1	166.73333333333332	78.4	5.0	3	3	7200	224.0	0;	%DK1 0 CCGT
	9	0.0	0.0	0.0	-0.0	1.0	100.0	1	224.0	78.4	2.8	0	0	7200	224.0	1;	%DK1 0 OCGT
	9	0.0	0.0	0.0	-0.0	1.0	100.0	1	9.538461538461538	2.0436	2.8	13	13	13	10.0	8;	%DK1 0 biomass
	9	0.0	0.0	0.0	-0.0	1.0	100.0	1	231.37136217774997	89.375	3.0	5	5	5	275.0	9;	%DK1 0 coal
	9	0.0	0.0	0.0	-0.0	1.0	100.0	1	30.060946661106318	0.0	0.0	82	82	93900	17.0	2;	%DK1 0 offwind
	9	0.0	0.0	0.0	-0.0	1.0	100.0	1	37.712803511894805	0.0	0.0	100	100	42000	38.0	4;	%DK1 0 onwind
	9	0.0	0.0	0.0	-0.0	1.0	100.0	1	0.0	0.0	0.0	37	37	57000	28.0	6;	%DK1 0 solar
	10	0.0	0.0	0.0	-0.0	1.0	100.0	1	187.0	78.4	5.0	4	4	2000	224.0	0;	%DK2 0 CCGT
	10	0.0	0.0	0.0	-0.0	1.0	100.0	1	224.0	78.4	2.8	0	0	2000	224.0	1;	%DK2 0 OCGT
	10	0.0	0.0	0.0	-0.0	1.0	100.0	1	10.0	2.0436	2.8	7	7	7	10.0	8;	%DK2 0 biomass
	10	0.0	0.0	0.0	-0.0	1.0	100.0	1	28.807752478131803	0.0	0.0	19	19	25400	17.0	2;	%DK2 0 offwind
	10	0.0	0.0	0.0	-0.0	1.0	100.0	1	37.863964416628484	0.0	0.0	20	20	11400	38.0	4;	%DK2 0 onwind
	10	0.0	0.0	0.0	-0.0	1.0	100.0	1	0.0	0.0	0.0	10	10	15500	28.0	6;	%DK2 0 solar
	11	0.0	0.0	0.0	-0.0	1.0	100.0	1	224.0	78.4	5.0	0	0	700	224.0	0;	%EE6 0 CCGT
	11	0.0	0.0	0.0	-0.0	1.0	100.0	1	224.0	78.4	2.8	0	0	700	224.0	1;	%EE6 0 OCGT
	11	0.0	0.0	0.0	-0.0	1.0	100.0	1	30.107	0.0	0.0	0	0	9300	17.0	2;	%EE6 0 offwind
	11	0.0	0.0	0.0	-0.0	1.0	100.0	1	30.17780055995847	0.0	0.0	9	9	4200	38.0	4;	%EE6 0 onwind
	11	0.0	0.0	0.0	-0.0	1.0	100.0	1	0.4220831497064513	0.0	0.0	5	5	5600	28.0	6;	%EE6 0 solar
	12	0.0	0.0	0.0	-0.0	1.0	100.0	1	223.20823762376236	78.4	5.0	101	101	63100	224.0	0;	%ES1 0 CCGT
	12	0.0	0.0	0.0	-0.0	1.0	100.0	1	224.0	78.4	2.8	0	0	63100	224.0	1;	%ES1 0 OCGT
	12	0.0	0.0	0.0	-0.0	1.0	100.0	1	242.28938995344714	89.375	3.0	8	8	8	275.0	9;	%ES1 0 coal
	12	0.0	0.0	0.0	-0.0	1.0	100.0	1	889.65	500.0	5.5	8	8	8	1000.0	10;	%ES1 0 nuclear
	12	0.0	0.0	0.0	-0.0	1.0	100.0	1	2.0080030619558564	0.0	0.0	1	1	831300	17.0	2;	%ES1 0 offwind
	12	0.0	0.0	0.0	-0.0	1.0	100.0	1	45.29516666666667	0.0	2.8	6	6	6	50.0	3;	%ES1 0 oil
	12	0.0	0.0	0.0	-0.0	1.0	100.0	1	8.28995443865816	0.0	0.0	706	706	371900	38.0	4;	%ES1 0 onwind
	12	0.0	0.0	0.0	-0.0	1.0	100.0	1	9.64945596517618	0.0	3.5	11	11	11	26.0	5;	%ES1 0 ror
	12	0.0	0.0	0.0	-0.0	1.0	100.0	1	0.0	0.0	0.0	418	418	504800	28.0	6;	%ES1 0 solar
	13	0.0	0.0	0.0	-0.0	1.0	100.0	1	193.8	78.4	5.0	5	5	1400	224.0	0;	%ES4 0 CCGT
	13	0.0	0.0	0.0	-0.0	1.0	100.0	1	224.0	78.4	2.8	0	0	1400	224.0	1;	%ES4 0 OCGT
	13	0.0	0.0	0.0	-0.0	1.0	100.0	1	0.07958437610507496	0.0	0.0	1	1	18000	17.0	2;	%ES4 0 offwind
	13	0.0	0.0	0.0	-0.0	1.0	100.0	1	48.8	0.0	2.8	4	4	4	50.0	3;	%ES4 0 oil
	13	0.0	0.0	0.0	-0.0	1.0	100.0	1	4.840493187502669	0.0	0.0	7	7	8100	38.0	4;	%ES4 0 onwind
	13	0.0	0.0	0.0	-0.0	1.0	100.0	1	0.0	0.0	0.0	4	4	10900	28.0	6;	%ES4 0 solar
	14	0.0	0.0	0.0	-0.0	1.0	100.0	1	214.725	78.4	5.0	8	8	11400	224.0	0;	%FI2 0 CCGT
	14	0.0	0.0	0.0	-0.0	1.0	100.0	1	224.0	78.4	2.8	0	0	11400	224.0	1;	%FI2 0 OCGT
	14	0.0	0.0	0.0	-0.0	1.0	100.0	1	9.71875	2.0436	2.8	32	32	32	10.0	8;	%FI2 0 biomass
	14	0.0	0.0	0.0	-0.0	1.0	100.0	1	238.0441221846116	89.375	3.0	5	5	5	275.0	9;	%FI2 0 coal
	14	0.0	0.0	0.0	-0.0	1.0	100.0	1	872.4	500.0	5.5	5	5	5	1000.0	10;	%FI2 0 nuclear
	14	0.0	0.0	0.0	-0.0	1.0	100.0	1	25.842582047809664	0.0	0.0	5	5	149100	17.0	2;	%FI2 0 offwind
	14	0.0	0.0	0.0	-0.0	1.0	100.0	1	14.644952381779406	0.0	0.0	84	84	66700	38.0	4;	%FI2 0 onwind
	14	0.0	0.0	0.0	-0.0	1.0	100.0	1	15.40435692981399	0.0	3.5	56	56	56	26.0	5;	%FI2 0 ror
	14	0.0	0.0	0.0	-0.0	1.0	100.0	1	0.0	0.0	0.0	14	14	90600	28.0	6;	%FI2 0 solar
	15	0.0	0.0	0.0	-0.0	1.0	100.0	1	218.42857142857142	78.4	5.0	28	28	74600	224.0	0;	%FR1 0 CCGT
	15	0.0	0.0	0.0	-0.0	1.0	100.0	1	224.0	78.4	2.8	0	0	74600	224.0	1;	%FR1 0 OCGT
	15	0.0	0.0	0.0	-0.0	1.0	100.0	1	9.940986538461537	2.0436	2.8	104	104	104	10.0	8;	%FR1 0 biomass
	15	0.0	0.0	0.0	-0.0	1.0	100.0	1	990.0	500.0	5.5	41	41	41	1000.0	10;	%FR1 0 nuclear
	15	0.0	0.0	0.0	-0.0	1.0	100.0	1	0.8190602187818147	0.0	0.0	1	1	982100	17.0	2;	%FR1 0 offwind
	15	0.0	0.0	0.0	-0.0	1.0	100.0	1	42.333333333333336	0.0	2.8	6	6	6	50.0	3;	%FR1 0 oil
	15	0.0	0.0	0.0	-0.0	1.0	100.0	1	34.58915859999035	0.0	0.0	452	452	439400	38.0	4;	%FR1 0 onwind
	15	0.0	0.0	0.0	-0.0	1.0	100.0	1	12.256449475801027	0.0	3.5	257	257	257	26.0	5;	%FR1 0 ror
	15	0.0	0.0	0.0	-0.0	1.0	100.0	1	0.0	0.0	0.0	417	417	596300	28.0	6;	%FR1 0 solar
	16	0.0	0.0	0.0	-0.0	1.0	100.0	1	223.36658709596236	78.4	5.0	137	137	81100	224.0	0;	%GB0 0 CCGT
	16	0.0	0.0	0.0	-0.0	1.0	100.0	1	224.0	78.4	2.8	0	0	81100	224.0	1;	%GB0 0 OCGT
	16	0.0	0.0	0.0	-0.0	1.0	100.0	1	9.998127925117004	2.0436	2.8	641	641	641	10.0	8;	%GB0 0 biomass
	16	0.0	0.0	0.0	-0.0	1.0	100.0	1	270.8333333333333	89.375	3.0	12	12	12	275.0	9;	%GB0 0 coal
	16	0.0	0.0	0.0	-0.0	1.0	100.0	1	918.1428571428571	500.0	5.5	7	7	7	1000.0	10;	%GB0 0 nuclear
	16	0.0	0.0	0.0	-0.0	1.0	100.0	1	30.080884960176153	0.0	0.0	570	570	1068200	17.0	2;	%GB0 0 offwind
	16	0.0	0.0	0.0	-0.0	1.0	100.0	1	36.962210908864044	0.0	0.0	343	343	477900	38.0	4;	%GB0 0 onwind
	16	0.0	0.0	0.0	-0.0	1.0	100.0	1	2.7794138392673786	0.0	3.5	339	339	339	26.0	5;	%GB0 0 ror
	16	0.0	0.0	0.0	-0.0	1.0	100.0	1	0.0	0.0	0.0	451	451	648600	28.0	6;	%GB0 0 solar
	17	0.0	0.0	0.0	-0.0	1.0	100.0	1	199.66666666666666	78.4	5.0	6	6	3500	224.0	0;	%GB5 0 CCGT
	17	0.0	0.0	0.0	-0.0	1.0	100.0	1	224.0	78.4	2.8	0	0	3500	224.0	1;	%GB5 0 OCGT
	17	0.0	0.0	0.0	-0.0	1.0	100.0	1	9.675	2.0436	2.8	4	4	4	10.0	8;	%GB5 0 biomass
	17	0.0	0.0	0.0	-0.0	1.0	100.0	1	29.558516712269075	0.0	0.0	42	42	45600	17.0	2;	%GB5 0 offwind
	17	0.0	0.0	0.0	-0.0	1.0	100.0	1	36.93658853808276	0.0	0.0	29	29	20400	38.0	4;	%GB5 0 onwind
	17	0.0	0.0	0.0	-0.0	1.0	100.0	1	0.0	0.0	0.0	31	31	27700	28.0	6;	%GB5 0 solar
	18	0.0	0.0	0.0	-0.0	1.0	100.0	1	219.4811754872973	78.4	5.0	19	19	11100	224.0	0;	%GR1 0 CCGT
	18	0.0	0.0	0.0	-0.0	1.0	100.0	1	224.0	78.4	2.8	0	0	11100	224.0	1;	%GR1 0 OCGT
	18	0.0	0.0	0.0	-0.0	1.0	100.0	1	220.0	110.0	3.0	3	3	3	275.0	7;	%GR1 0 lignite
	18	0.0	0.0	0.0	-0.0	1.0	100.0	1	4.259482387833714	0.0	0.0	0	0	145800	17.0	2;	%GR1 0 offwind
	18	0.0	0.0	0.0	-0.0	1.0	100.0	1	47.24311026765802	0.0	2.8	2	2	2	50.0	3;	%GR1 0 oil
	18	0.0	0.0	0.0	-0.0	1.0	100.0	1	3.051527643652553	0.0	0.0	109	109	65200	38.0	4;	%GR1 0 onwind
	18	0.0	0.0	0.0	-0.0	1.0	100.0	1	25.775	0.0	3.5	4	4	4	26.0	5;	%GR1 0 ror
	18	0.0	0.0	0.0	-0.0	1.0	100.0	1	5.87305464580818	0.0	0.0	116	116	88500	28.0	6;	%GR1 0 solar
	19	0.0	0.0	0.0	-0.0	1.0	100.0	1	78.4	78.4	5.0	1	1	1400	224.0	0;	%HR1 0 CCGT
	19	0.0	0.0	0.0	-0.0	1.0	100.0	1	224.0	78.4	2.8	0	0	1400	224.0	1;	%HR1 0 OCGT
	19	0.0	0.0	0.0	-0.0	1.0	100.0	1	4.403468108054698	0.0	0.0	0	0	18300	17.0	2;	%HR1 0 offwind
	19	0.0	0.0	0.0	-0.0	1.0	100.0	1	2.382916752522237	0.0	0.0	21	21	8200	38.0	4;	%HR1 0 onwind
	19	0.0	0.0	0.0	-0.0	1.0	100.0	1	24.833796198199718	0.0	3.5	11	11	11	26.0	5;	%HR1 0 ror
	19	0.0	0.0	0.0	-0.0	1.0	100.0	1	1.5103730389920516	0.0	0.0	4	4	11100	28.0	6;	%HR1 0 solar
	20	0.0	0.0	0.0	-0.0	1.0	100.0	1	215.52499999999998	78.4	5.0	8	8	5700	224.0	0;	%HU1 0 CCGT
	20	0.0	0.0	0.0	-0.0	1.0	100.0	1	224.0	78.4	2.8	0	0	5700	224.0	1;	%HU1 0 OCGT
	20	0.0	0.0	0.0	-0.0	1.0	100.0	1	230.4842391407936	89.375	3.0	1	1	1	275.0	9;	%HU1 0 coal
	20	0.0	0.0	0.0	-0.0	1.0	100.0	1	949.45	500.0	5.5	2	2	2	1000.0	10;	%HU1 0 nuclear
	20	0.0	0.0	0.0	-0.0	1.0	100.0	1	42.5	0.0	2.8	4	4	4	50.0	3;	%HU1 0 oil
	20	0.0	0.0	0.0	-0.0	1.0	100.0	1	7.202507770785423	0.0	0.0	9	9	33300	38.0	4;	%HU1 0 onwind
	20	0.0	0.0	0.0	-0.0	1.0	100.0	1	5.729221883836702	0.0	3.5	1	1	1	26.0	5;	%HU1 0 ror
	20	0.0	0.0	0.0	-0.0	1.0	100.0	1	1.5096253975344087	0.0	0.0	70	70	45200	28.0	6;	%HU1 0 solar
	21	0.0	0.0	0.0	-0.0	1.0	100.0	1	222.05263157894737	78.4	5.0	19	19	8300	224.0	0;	%IE5 0 CCGT
	21	0.0	0.0	0.0	-0.0	1.0	100.0	1	224.0	78.4	2.8	0	0	8300	224.0	1;	%IE5 0 OCGT
	21	0.0	0.0	0.0	-0.0	1.0	100.0	1	253.0	110.0	3.0	1	1	1	275.0	7;	%IE5 0 lignite
	21	0.0	0.0	0.0	-0.0	1.0	100.0	1	22.220021401278974	0.0	0.0	2	2	108700	17.0	2;	%IE5 0 offwind
	21	0.0	0.0	0.0	-0.0	1.0	100.0	1	41.6	0.0	2.8	5	5	5	50.0	3;	%IE5 0 oil
	21	0.0	0.0	0.0	-0.0	1.0	100.0	1	37.64520375224631	0.0	0.0	113	113	48700	38.0	4;	%IE5 0 onwind
	21	0.0	0.0	0.0	-0.0	1.0	100.0	1	16.93355905721073	0.0	3.5	9	9	9	26.0	5;	%IE5 0 ror
	21	0.0	0.0	0.0	-0.0	1.0	100.0	1	0.0	0.0	0.0	2	2	66000	28.0	6;	%IE5 0 solar
	22	0.0	0.0	0.0	-0.0	1.0	100.0	1	223.67257142857142	78.4	5.0	175	175	67800	224.0	0;	%IT1 0 CCGT
	22	0.0	0.0	0.0	-0.0	1.0	100.0	1	224.0	78.4	2.8	0	0	67800	224.0	1;	%IT1 0 OCGT
	22	0.0	0.0	0.0	-0.0	1.0	100.0	1	9.883645833333333	2.0436	2.8	48	48	48	10.0	8;	%IT1 0 biomass
	22	0.0	0.0	0.0	-0.0	1.0	100.0	1	59.0	0.0	2.8	1	1	1	59.0	11;	%IT1 0 geothermal
	22	0.0	0.0	0.0	-0.0	1.0	100.0	1	9.457206263428786	0.0	0.0	0	0	893000	17.0	2;	%IT1 0 offwind
	22	0.0	0.0	0.0	-0.0	1.0	100.0	1	5.095497153209251	0.0	0.0	229	229	399500	38.0	4;	%IT1 0 onwind
	22	0.0	0.0	0.0	-0.0	1.0	100.0	1	7.746068670704083	0.0	3.5	273	273	273	26.0	5;	%IT1 0 ror
	22	0.0	0.0	0.0	-0.0	1.0	100.0	1	2.34074161559024	0.0	0.0	731	731	542200	28.0	6;	%IT1 0 solar
	23	0.0	0.0	0.0	-0.0	1.0	100.0	1	179.5	78.4	5.0	4	4	4100	224.0	0;	%IT3 0 CCGT
	23	0.0	0.0	0.0	-0.0	1.0	100.0	1	224.0	78.4	2.8	0	0	4100	224.0	1;	%IT3 0 OCGT
	23	0.0	0.0	0.0	-0.0	1.0	100.0	1	9.0	2.0436	2.8	4	4	4	10.0	8;	%IT3 0 biomass
	23	0.0	0.0	0.0	-0.0	1.0	100.0	1	5.040164629516916	0.0	0.0	0	0	53400	17.0	2;	%IT3 0 offwind
	23	0.0	0.0	0.0	-0.0	1.0	100.0	1	50.0	0.0	2.8	3	3	3	50.0	3;	%IT3 0 oil
	23	0.0	0.0	0.0	-0.0	1.0	100.0	1	3.6754299281989766	0.0	0.0	63	63	23900	38.0	4;	%IT3 0 onwind
	23	0.0	0.0	0.0	-0.0	1.0	100.0	1	5.961015751681626	0.0	3.5	3	3	3	26.0	5;	%IT3 0 ror
	23	0.0	0.0	0.0	-0.0	1.0	100.0	1	1.3152483466383722	0.0	0.0	43	43	32500	28.0	6;	%IT3 0 solar
	24	0.0	0.0	0.0	-0.0	1.0	100.0	1	209.0	78.4	5.0	5	5	1700	224.0	0;	%LT6 0 CCGT
	24	0.0	0.0	0.0	-0.0	1.0	100.0	1	224.0	78.4	2.8	0	0	1700	224.0	1;	%LT6 0 OCGT
	24	0.0	0.0	0.0	-0.0	1.0	100.0	1	30.107	0.0	0.0	0	0	21600	17.0	2;	%LT6 0 offwind
	24	0.0	0.0	0.0	-0.0	1.0	100.0	1	21.64658317023743	0.0	0.0	15	15	9700	38.0	4;	%LT6 0 onwind
	24	0.0	0.0	0.0	-0.0	1.0	100.0	1	24.22696882777134	0.0	3.5	4	4	4	26.0	5;	%LT6 0 ror
	24	0.0	0.0	0.0	-0.0	1.0	100.0	1	1.1002408665775456	0.0	0.0	6	6	13100	28.0	6;	%LT6 0 solar
	25	0.0	0.0	0.0	-0.0	1.0	100.0	1	224.0	78.4	5.0	0	0	600	224.0	0;	%LU1 0 CCGT
	25	0.0	0.0	0.0	-0.0	1.0	100.0	1	224.0	78.4	2.8	0	0	600	224.0	1;	%LU1 0 OCGT
	25	0.0	0.0	0.0	-0.0	1.0	100.0	1	7.3335	2.0436	2.8	1	1	1	10.0	8;	%LU1 0 biomass
	25	0.0	0.0	0.0	-0.0	1.0	100.0	1	34.13818095137471	0.0	0.0	7	7	3300	38.0	4;	%LU1 0 onwind
	25	0.0	0.0	0.0	-0.0	1.0	100.0	1	15.450178639373787	0.0	3.5	2	2	2	26.0	5;	%LU1 0 ror
	25	0.0	0.0	0.0	-0.0	1.0	100.0	1	0.0	0.0	0.0	10	10	4500	28.0	6;	%LU1 0 solar
	26	0.0	0.0	0.0	-0.0	1.0	100.0	1	207.8	78.4	5.0	5	5	2400	224.0	0;	%LV6 0 CCGT
	26	0.0	0.0	0.0	-0.0	1.0	100.0	1	224.0	78.4	2.8	0	0	2400	224.0	1;	%LV6 0 OCGT
	26	0.0	0.0	0.0	-0.0	1.0	100.0	1	30.107	0.0	0.0	0	0	31300	17.0	2;	%LV6 0 offwind
	26	0.0	0.0	0.0	-0.0	1.0	100.0	1	19.195735540622533	0.0	0.0	3	3	14100	38.0	4;	%LV6 0 onwind
	26	0.0	0.0	0.0	-0.0	1.0	100.0	1	9.992635444441293	0.0	3.5	60	60	60	26.0	5;	%LV6 0 ror
	26	0.0	0.0	0.0	-0.0	1.0	100.0	1	0.260263623316658	0.0	0.0	1	1	19100	28.0	6;	%LV6 0 solar
	27	0.0	0.0	0.0	-0.0	1.0	100.0	1	224.0	78.4	5.0	0	0	400	224.0	0;	%ME1 0 CCGT
	27	0.0	0.0	0.0	-0.0	1.0	100.0	1	224.0	78.4	2.8	0	0	400	224.0	1;	%ME1 0 OCGT
	27	0.0	0.0	0.0	-0.0	1.0	100.0	1	207.4814722673996	110.0	3.0	1	1	1	275.0	7;	%ME1 0 lignite
	27	0.0	0.0	0.0	-0.0	1.0	100.0	1	1.310230551561121	0.0	0.0	0	0	4100	17.0	2;	%ME1 0 offwind
	27	0.0	0.0	0.0	-0.0	1.0	100.0	1	0.8010579724764331	0.0	0.0	4	4	1800	38.0	4;	%ME1 0 onwind
	27	0.0	0.0	0.0	-0.0	1.0	100.0	1	5.360187610635527	0.0	3.5	1	1	1	26.0	5;	%ME1 0 ror
	27	0.0	0.0	0.0	-0.0	1.0	100.0	1	0.7377952620207102	0.0	0.0	1	1	2500	28.0	6;	%ME1 0 solar
	28	0.0	0.0	0.0	-0.0	1.0	100.0	1	224.0	78.4	5.0	0	0	800	224.0	0;	%MK1 0 CCGT
	28	0.0	0.0	0.0	-0.0	1.0	100.0	1	224.0	78.4	2.8	0	0	800	224.0	1;	%MK1 0 OCGT
	28	0.0	0.0	0.0	-0.0	1.0	100.0	1	0.0	0.0	0.0	1	1	4500	38.0	4;	%MK1 0 onwind
	28	0.0	0.0	0.0	-0.0	1.0	100.0	1	3.2952806188351453	0.0	0.0	4	4	6000	28.0	6;	%MK1 0 solar
	29	0.0	0.0	0.0	-0.0	1.0	100.0	1	222.38863636363638	78.4	5.0	44	44	27800	224.0	0;	%NL1 0 CCGT
	29	0.0	0.0	0.0	-0.0	1.0	100.0	1	224.0	78.4	2.8	0	0	27800	224.0	1;	%NL1 0 OCGT
...
];

%% generator cost data
%	2	startup	shutdown	n	c(n-1)	...	c0	investment
mpc.gencost = [
	2	60924.9103448276	24369.96413793104	3	0.0	310.8413793103449	0.0	0.0	20257.72727092799;	%AL1 0 CCGT
	2	83926.24390243903	33570.497560975615	3	0.0	428.19512195121956	0.0	0.0	9225.00356108442;	%AL1 0 OCGT
	2	0.0	0.0	3	0.0	0.12	0.0	0.0	2871.3938497496147;	%AL1 0 offwind
	2	0.0	0.0	3	0.0	1190.857142857143	0.0	0.0	1729.260612177548;	%AL1 0 oil
	2	0.0	0.0	3	0.0	0.12	0.0	0.0	3334.4874381358163;	%AL1 0 onwind
	2	0.0	0.0	3	0.0	0.0	0.0	0.0	7102.872920694035;	%AL1 0 ror
	2	0.0	0.0	3	0.0	0.07999999999999999	0.0	0.0	910.3725980150908;	%AL1 0 solar
	2	60628.253540819125	24251.30141632765	3	0.0	309.3278241878526	0.0	0.0	20257.727270927986;	%AT1 0 CCGT
	2	83926.24390243903	33570.497560975615	3	0.0	428.19512195121956	0.0	0.0	9225.00356108442;	%AT1 0 OCGT
	2	0.0	0.0	3	0.0	0.11999999999999998	0.0	0.0	3334.4874381358163;	%AT1 0 onwind
	2	0.0	0.0	3	0.0	0.0	0.0	0.0	7102.872920694035;	%AT1 0 ror
	2	0.0	0.0	3	0.0	0.08000000000000002	0.0	0.0	910.3725980150911;	%AT1 0 solar
	2	60924.9103448276	24369.96413793104	3	0.0	310.8413793103449	0.0	0.0	20257.72727092799;	%BA1 0 CCGT
	2	83926.24390243903	33570.497560975615	3	0.0	428.19512195121956	0.0	0.0	9225.00356108442;	%BA1 0 OCGT
	2	27033.33333333333	10813.333333333332	3	0.0	98.3030303030303	0.0	0.0	87893.65502119702;	%BA1 0 lignite
	2	0.0	0.0	3	0.0	0.12	0.0	0.0	3334.4874381358163;	%BA1 0 onwind
	2	0.0	0.0	3	0.0	0.08000000000000002	0.0	0.0	910.3725980150911;	%BA1 0 solar
	2	72029.28703974726	28811.7148158989	3	0.0	367.49636244769005	0.0	0.0	20257.72727092799;	%BE1 0 CCGT
	2	83926.24390243905	33570.49756097562	3	0.0	428.1951219512196	0.0	0.0	9225.00356108442;	%BE1 0 OCGT
	2	608.731914893617	243.49276595744684	3	0.0	119.14893617021278	0.0	0.0	2539.5713731145624;	%BE1 0 biomass
	2	0.0	0.0	3	0.0	0.12000000000000001	0.0	0.0	2977.8859917140107;	%BE1 0 offwind
	2	0.0	0.0	3	0.0	0.12000000000000001	0.0	0.0	3334.4874381358163;	%BE1 0 onwind
	2	0.0	0.0	3	0.0	0.0	0.0	0.0	7102.872920694035;	%BE1 0 ror
	2	0.0	0.0	3	0.0	0.08000000000000002	0.0	0.0	910.372598015091;	%BE1 0 solar
	2	60924.9103448276	24369.96413793104	3	0.0	310.8413793103449	0.0	0.0	20257.727270927986;	%BG1 0 CCGT
	2	83926.24390243903	33570.497560975615	3	0.0	428.1951219512195	0.0	0.0	9225.00356108442;	%BG1 0 OCGT
	2	50402.08333333333	20160.833333333332	3	0.0	225.57575757575756	0.0	0.0	87893.65502119702;	%BG1 0 coal
	2	27033.333333333325	10813.33333333333	3	0.0	98.30303030303028	0.0	0.0	87893.655021197;	%BG1 0 lignite
	2	113787.87878787878	45515.15151515151	3	0.0	91.03030303030303	0.0	0.0	645454.4445378621;	%BG1 0 nuclear
	2	0.0	0.0	3	0.0	0.12	0.0	0.0	3025.053065336845;	%BG1 0 offwind
	2	0.0	0.0	3	0.0	0.11999999999999998	0.0	0.0	3334.4874381358163;	%BG1 0 onwind
	2	0.0	0.0	3	0.0	0.0	0.0	0.0	7102.872920694035;	%BG1 0 ror
	2	0.0	0.0	3	0.0	0.07999999999999999	0.0	0.0	910.372598015091;	%BG1 0 solar
	2	60924.91034482759	24369.964137931038	3	0.0	310.84137931034485	0.0	0.0	20257.727270927986;	%CH1 0 CCGT
	2	83926.24390243903	33570.497560975615	3	0.0	428.1951219512195	0.0	0.0	9225.003561084419;	%CH1 0 OCGT
	2	608.731914893617	243.49276595744684	3	0.0	119.14893617021278	0.0	0.0	2539.5713731145624;	%CH1 0 biomass
	2	113787.87878787878	45515.15151515151	3	0.0	91.03030303030303	0.0	0.0	645454.4445378621;	%CH1 0 nuclear
	2	0.0	0.0	3	0.0	0.11999999999999998	0.0	0.0	3334.4874381358163;	%CH1 0 onwind
	2	0.0	0.0	3	0.0	0.0	0.0	0.0	7102.872920694035;	%CH1 0 ror
	2	0.0	0.0	3	0.0	0.08	0.0	0.0	910.372598015091;	%CH1 0 solar
	2	60924.9103448276	24369.96413793104	3	0.0	310.8413793103449	0.0	0.0	20257.72727092799;	%CZ1 0 CCGT
	2	83926.24390243903	33570.497560975615	3	0.0	428.19512195121956	0.0	0.0	9225.00356108442;	%CZ1 0 OCGT
	2	27033.33333333333	10813.333333333332	3	0.0	98.3030303030303	0.0	0.0	87893.65502119703;	%CZ1 0 lignite
	2	113787.87878787878	45515.15151515151	3	0.0	91.03030303030303	0.0	0.0	645454.4445378621;	%CZ1 0 nuclear
	2	0.0	0.0	3	0.0	0.12	0.0	0.0	3334.4874381358163;	%CZ1 0 onwind
	2	0.0	0.0	3	0.0	0.0	0.0	0.0	7102.872920694035;	%CZ1 0 ror
	2	0.0	0.0	3	0.0	0.07999999999999999	0.0	0.0	910.3725980150908;	%CZ1 0 solar
	2	69097.50262344998	27639.001049379993	3	0.0	352.5382786910713	0.0	0.0	20257.72727092799;	%DE1 0 CCGT
	2	76639.11888261898	30655.64755304759	3	0.0	391.01591266642333	0.0	0.0	9225.00356108442;	%DE1 0 OCGT
	2	608.731914893617	243.4927659574468	3	0.0	119.14893617021276	0.0	0.0	2539.5713731145624;	%DE1 0 biomass
	2	50394.241762274985	20157.696704909995	3	0.0	225.54066243255937	0.0	0.0	87893.65502119702;	%DE1 0 coal
	2	24630.232676577503	9852.093070631001	3	0.0	89.56448246028182	0.0	0.0	87893.65502119702;	%DE1 0 lignite
	2	0.0	0.0	3	0.0	0.12	0.0	0.0	3294.3171853997414;	%DE1 0 offwind
	2	0.0	0.0	3	0.0	1105.7037099359109	0.0	0.0	1729.260612177548;	%DE1 0 oil
	2	0.0	0.0	3	0.0	0.12	0.0	0.0	3334.4874381358163;	%DE1 0 onwind
	2	0.0	0.0	3	0.0	0.0	0.0	0.0	7102.872920694035;	%DE1 0 ror
	2	0.0	0.0	3	0.0	0.07999999999999999	0.0	0.0	910.3725980150908;	%DE1 0 solar
	2	68746.64234168403	27498.65693667361	3	0.0	350.7481752126736	0.0	0.0	20257.72727092799;	%DK1 0 CCGT
	2	83926.24390243903	33570.497560975615	3	0.0	428.19512195121956	0.0	0.0	9225.00356108442;	%DK1 0 OCGT
	2	608.731914893617	243.49276595744684	3	0.0	119.14893617021278	0.0	0.0	2539.5713731145624;	%DK1 0 biomass
	2	50402.08333333332	20160.83333333333	3	0.0	225.57575757575754	0.0	0.0	87893.65502119702;	%DK1 0 coal
	2	0.0	0.0	3	0.0	0.12	0.0	0.0	3180.800497940419;	%DK1 0 offwind
	2	0.0	0.0	3	0.0	0.12	0.0	0.0	3334.4874381358163;	%DK1 0 onwind
	2	0.0	0.0	3	0.0	0.08000000000000002	0.0	0.0	910.3725980150911;	%DK1 0 solar
	2	60924.9103448276	24369.96413793104	3	0.0	310.8413793103449	0.0	0.0	20257.72727092799;	%DK2 0 CCGT
	2	83926.24390243903	33570.497560975615	3	0.0	428.19512195121956	0.0	0.0	9225.00356108442;	%DK2 0 OCGT
	2	608.731914893617	243.49276595744684	3	0.0	119.14893617021278	0.0	0.0	2539.5713731145624;	%DK2 0 biomass
	2	0.0	0.0	3	0.0	0.12	0.0	0.0	3105.656192176123;	%DK2 0 offwind
	2	0.0	0.0	3	0.0	0.11999999999999998	0.0	0.0	3334.4874381358163;	%DK2 0 onwind
	2	0.0	0.0	3	0.0	0.08000000000000002	0.0	0.0	910.3725980150911;	%DK2 0 solar
	2	60924.9103448276	24369.96413793104	3	0.0	310.8413793103449	0.0	0.0	20257.72727092799;	%EE6 0 CCGT
	2	83926.24390243903	33570.497560975615	3	0.0	428.19512195121956	0.0	0.0	9225.00356108442;	%EE6 0 OCGT
	2	0.0	0.0	3	0.0	0.12	0.0	0.0	3152.7549498533795;	%EE6 0 offwind
	2	0.0	0.0	3	0.0	0.11999999999999997	0.0	0.0	3334.4874381358163;	%EE6 0 onwind
	2	0.0	0.0	3	0.0	0.08	0.0	0.0	910.372598015091;	%EE6 0 solar
	2	70509.8229213337	28203.929168533483	3	0.0	359.7439944966005	0.0	0.0	20257.72727092799;	%ES1 0 CCGT
	2	83926.24390243905	33570.49756097562	3	0.0	428.1951219512196	0.0	0.0	9225.00356108442;	%ES1 0 OCGT
	2	50402.08333333334	20160.833333333336	3	0.0	225.5757575757576	0.0	0.0	87893.65502119703;	%ES1 0 coal
	2	113787.87878787878	45515.15151515151	3	0.0	91.03030303030303	0.0	0.0	645454.4445378621;	%ES1 0 nuclear
	2	0.0	0.0	3	0.0	0.12	0.0	0.0	3105.171019065029;	%ES1 0 offwind
	2	0.0	0.0	3	0.0	1190.857142857143	0.0	0.0	1729.260612177548;	%ES1 0 oil
	2	0.0	0.0	3	0.0	0.12000000000000001	0.0	0.0	3334.487438135817;	%ES1 0 onwind
	2	0.0	0.0	3	0.0	0.0	0.0	0.0	7102.872920694035;	%ES1 0 ror
	2	0.0	0.0	3	0.0	0.08000000000000002	0.0	0.0	910.372598015091;	%ES1 0 solar
	2	60924.9103448276	24369.96413793104	3	0.0	310.8413793103449	0.0	0.0	20257.72727092799;	%ES4 0 CCGT
	2	83926.24390243903	33570.497560975615	3	0.0	428.19512195121956	0.0	0.0	9225.00356108442;	%ES4 0 OCGT
	2	0.0	0.0	3	0.0	0.12	0.0	0.0	3059.3950547108684;	%ES4 0 offwind
	2	0.0	0.0	3	0.0	1190.857142857143	0.0	0.0	1729.260612177548;	%ES4 0 oil
	2	0.0	0.0	3	0.0	0.12000000000000001	0.0	0.0	3334.487438135817;	%ES4 0 onwind
	2	0.0	0.0	3	0.0	0.08	0.0	0.0	910.3725980150908;	%ES4 0 solar
	2	55339.97457352745	22135.98982941098	3	0.0	282.34680904860943	0.0	0.0	20257.72727092799;	%FI2 0 CCGT
	2	83926.24390243903	33570.497560975615	3	0.0	428.19512195121956	0.0	0.0	9225.00356108442;	%FI2 0 OCGT
	2	608.731914893617	243.49276595744684	3	0.0	119.14893617021278	0.0	0.0	2539.5713731145624;	%FI2 0 biomass
	2	50402.08333333333	20160.833333333332	3	0.0	225.57575757575756	0.0	0.0	87893.65502119702;	%FI2 0 coal
	2	113787.87878787878	45515.15151515151	3	0.0	91.03030303030303	0.0	0.0	645454.4445378621;	%FI2 0 nuclear
	2	0.0	0.0	3	0.0	0.12	0.0	0.0	3131.8340171626933;	%FI2 0 offwind
	2	0.0	0.0	3	0.0	0.12000000000000001	0.0	0.0	3334.487438135817;	%FI2 0 onwind
	2	0.0	0.0	3	0.0	0.0	0.0	0.0	7102.872920694035;	%FI2 0 ror
	2	0.0	0.0	3	0.0	0.08000000000000002	0.0	0.0	910.3725980150911;	%FI2 0 solar
	2	63016.99451756816	25206.797807027262	3	0.0	321.5152781508579	0.0	0.0	20257.72727092799;	%FR1 0 CCGT
	2	83926.24390243905	33570.49756097562	3	0.0	428.1951219512196	0.0	0.0	9225.00356108442;	%FR1 0 OCGT
	2	608.731914893617	243.49276595744684	3	0.0	119.14893617021278	0.0	0.0	2539.5713731145624;	%FR1 0 biomass
	2	113787.87878787878	45515.15151515151	3	0.0	91.03030303030303	0.0	0.0	645454.4445378621;	%FR1 0 nuclear
	2	0.0	0.0	3	0.0	0.11999999999999998	0.0	0.0	3043.449586978878;	%FR1 0 offwind
	2	0.0	0.0	3	0.0	1190.857142857143	0.0	0.0	1729.260612177548;	%FR1 0 oil
	2	0.0	0.0	3	0.0	0.12000000000000001	0.0	0.0	3334.487438135817;	%FR1 0 onwind
	2	0.0	0.0	3	0.0	0.0	0.0	0.0	7102.872920694035;	%FR1 0 ror
	2	0.0	0.0	3	0.0	0.08000000000000002	0.0	0.0	910.3725980150911;	%FR1 0 solar
	2	61069.228237997915	24427.691295199165	3	0.0	311.57769509182606	0.0	0.0	20257.72727092799;	%GB0 0 CCGT
	2	83926.24390243903	33570.497560975615	3	0.0	428.1951219512195	0.0	0.0	9225.003561084419;	%GB0 0 OCGT
	2	608.7319148936173	243.4927659574469	3	0.0	119.1489361702128	0.0	0.0	2539.5713731145624;	%GB0 0 biomass
	2	50402.08333333333	20160.833333333332	3	0.0	225.57575757575756	0.0	0.0	87893.65502119702;	%GB0 0 coal
	2	113787.87878787878	45515.15151515151	3	0.0	91.03030303030303	0.0	0.0	645454.4445378621;	%GB0 0 nuclear
	2	0.0	0.0	3	0.0	0.12	0.0	0.0	3173.0297391418176;	%GB0 0 offwind
	2	0.0	0.0	3	0.0	0.12	0.0	0.0	3334.4874381358163;	%GB0 0 onwind
	2	0.0	0.0	3	0.0	0.0	0.0	0.0	7102.872920694035;	%GB0 0 ror
	2	0.0	0.0	3	0.0	0.08	0.0	0.0	910.372598015091;	%GB0 0 solar
	2	60924.9103448276	24369.96413793104	3	0.0	310.8413793103449	0.0	0.0	20257.72727092799;	%GB5 0 CCGT
	2	83926.24390243903	33570.497560975615	3	0.0	428.1951219512195	0.0	0.0	9225.00356108442;	%GB5 0 OCGT
	2	608.731914893617	243.49276595744684	3	0.0	119.14893617021278	0.0	0.0	2539.5713731145624;	%GB5 0 biomass
	2	0.0	0.0	3	0.0	0.12	0.0	0.0	3307.9040978496705;	%GB5 0 offwind
	2	0.0	0.0	3	0.0	0.12	0.0	0.0	3334.4874381358163;	%GB5 0 onwind
	2	0.0	0.0	3	0.0	0.08	0.0	0.0	910.372598015091;	%GB5 0 solar
	2	63934.1021332888	25573.64085331552	3	0.0	326.19439863922855	0.0	0.0	20257.72727092799;	%GR1 0 CCGT
	2	83926.24390243903	33570.497560975615	3	0.0	428.1951219512195	0.0	0.0	9225.003561084419;	%GR1 0 OCGT
	2	27033.33333333333	10813.333333333332	3	0.0	98.3030303030303	0.0	0.0	87893.65502119702;	%GR1 0 lignite
	2	0.0	0.0	3	0.0	0.12	0.0	0.0	3249.0520502781856;	%GR1 0 offwind
	2	0.0	0.0	3	0.0	1190.857142857143	0.0	0.0	1729.260612177548;	%GR1 0 oil
	2	0.0	0.0	3	0.0	0.12	0.0	0.0	3334.4874381358163;	%GR1 0 onwind
	2	0.0	0.0	3	0.0	0.0	0.0	0.0	7102.872920694037;	%GR1 0 ror
	2	0.0	0.0	3	0.0	0.07999999999999999	0.0	0.0	910.372598015091;	%GR1 0 solar
	2	60924.9103448276	24369.96413793104	3	0.0	310.8413793103449	0.0	0.0	20257.72727092799;	%HR1 0 CCGT
	2	83926.24390243903	33570.497560975615	3	0.0	428.19512195121956	0.0	0.0	9225.00356108442;	%HR1 0 OCGT
	2	0.0	0.0	3	0.0	0.12	0.0	0.0	3057.6768694820275;	%HR1 0 offwind
	2	0.0	0.0	3	0.0	0.12	0.0	0.0	3334.4874381358163;	%HR1 0 onwind
	2	0.0	0.0	3	0.0	0.0	0.0	0.0	7102.872920694035;	%HR1 0 ror
	2	0.0	0.0	3	0.0	0.08	0.0	0.0	910.372598015091;	%HR1 0 solar
	2	60697.03605881038	24278.814423524153	3	0.0	309.67875540209377	0.0	0.0	20257.72727092799;	%HU1 0 CCGT
	2	83926.24390243903	33570.497560975615	3	0.0	428.1951219512195	0.0	0.0	9225.003561084419;	%HU1 0 OCGT
	2	50402.08333333333	20160.833333333332	3	0.0	225.57575757575756	0.0	0.0	87893.65502119702;	%HU1 0 coal
	2	113787.87878787878	45515.15151515151	3	0.0	91.03030303030303	0.0	0.0	645454.4445378621;	%HU1 0 nuclear
	2	0.0	0.0	3	0.0	1190.857142857143	0.0	0.0	1729.260612177548;	%HU1 0 oil
	2	0.0	0.0	3	0.0	0.11999999999999998	0.0	0.0	3334.4874381358163;	%HU1 0 onwind
	2	0.0	0.0	3	0.0	0.0	0.0	0.0	7102.872920694035;	%HU1 0 ror
	2	0.0	0.0	3	0.0	0.08	0.0	0.0	910.372598015091;	%HU1 0 solar
	2	72693.56843243395	29077.42737297358	3	0.0	370.8855532267038	0.0	0.0	20257.727270927986;	%IE5 0 CCGT
	2	83926.24390243905	33570.49756097562	3	0.0	428.1951219512196	0.0	0.0	9225.00356108442;	%IE5 0 OCGT
	2	27033.333333333336	10813.333333333334	3	0.0	98.30303030303031	0.0	0.0	87893.65502119703;	%IE5 0 lignite
	2	0.0	0.0	3	0.0	0.12	0.0	0.0	3183.0167933862126;	%IE5 0 offwind
	2	0.0	0.0	3	0.0	1190.857142857143	0.0	0.0	1729.260612177548;	%IE5 0 oil
	2	0.0	0.0	3	0.0	0.12	0.0	0.0	3334.487438135817;	%IE5 0 onwind
	2	0.0	0.0	3	0.0	0.0	0.0	0.0	7102.872920694035;	%IE5 0 ror
	2	0.0	0.0	3	0.0	0.08	0.0	0.0	910.372598015091;	%IE5 0 solar
	2	73208.10841410584	29283.243365642338	3	0.0	373.51075721482573	0.0	0.0	20257.72727092799;	%IT1 0 CCGT
	2	83926.24390243903	33570.497560975615	3	0.0	428.1951219512195	0.0	0.0	9225.003561084419;	%IT1 0 OCGT
	2	608.7319148936172	243.49276595744686	3	0.0	119.14893617021279	0.0	0.0	2539.5713731145624;	%IT1 0 biomass
	2	0.0	0.0	3	0.0	0.0	0.0	0.0	18022.328533788022;	%IT1 0 geothermal
	2	0.0	0.0	3	0.0	0.12	0.0	0.0	3044.1369470653112;	%IT1 0 offwind
	2	0.0	0.0	3	0.0	0.11999999999999998	0.0	0.0	3334.4874381358163;	%IT1 0 onwind
	2	0.0	0.0	3	0.0	0.0	0.0	0.0	7102.872920694035;	%IT1 0 ror
	2	0.0	0.0	3	0.0	0.08	0.0	0.0	910.372598015091;	%IT1 0 solar
	2	60924.9103448276	24369.96413793104	3	0.0	310.8413793103449	0.0	0.0	20257.72727092799;	%IT3 0 CCGT
	2	83926.24390243903	33570.497560975615	3	0.0	428.19512195121956	0.0	0.0	9225.00356108442;	%IT3 0 OCGT
	2	608.731914893617	243.49276595744684	3	0.0	119.14893617021278	0.0	0.0	2539.5713731145624;	%IT3 0 biomass
	2	0.0	0.0	3	0.0	0.11999999999999998	0.0	0.0	2873.5019352604654;	%IT3 0 offwind
	2	0.0	0.0	3	0.0	1190.857142857143	0.0	0.0	1729.260612177548;	%IT3 0 oil
	2	0.0	0.0	3	0.0	0.12	0.0	0.0	3334.4874381358163;	%IT3 0 onwind
	2	0.0	0.0	3	0.0	0.0	0.0	0.0	7102.872920694035;	%IT3 0 ror
	2	0.0	0.0	3	0.0	0.08	0.0	0.0	910.372598015091;	%IT3 0 solar
	2	60924.9103448276	24369.96413793104	3	0.0	310.8413793103449	0.0	0.0	20257.72727092799;	%LT6 0 CCGT
	2	83926.24390243903	33570.497560975615	3	0.0	428.19512195121956	0.0	0.0	9225.00356108442;	%LT6 0 OCGT
	2	0.0	0.0	3	0.0	0.12	0.0	0.0	3041.4893593675997;	%LT6 0 offwind
	2	0.0	0.0	3	0.0	0.11999999999999997	0.0	0.0	3334.4874381358163;	%LT6 0 onwind
	2	0.0	0.0	3	0.0	0.0	0.0	0.0	7102.872920694035;	%LT6 0 ror
	2	0.0	0.0	3	0.0	0.08000000000000002	0.0	0.0	910.3725980150911;	%LT6 0 solar
	2	60924.9103448276	24369.96413793104	3	0.0	310.8413793103449	0.0	0.0	20257.72727092799;	%LU1 0 CCGT
	2	83926.24390243903	33570.497560975615	3	0.0	428.19512195121956	0.0	0.0	9225.00356108442;	%LU1 0 OCGT
	2	608.731914893617	243.49276595744684	3	0.0	119.14893617021278	0.0	0.0	2539.5713731145624;	%LU1 0 biomass
	2	0.0	0.0	3	0.0	0.12	0.0	0.0	3334.4874381358163;	%LU1 0 onwind
	2	0.0	0.0	3	0.0	0.0	0.0	0.0	7102.872920694035;	%LU1 0 ror
	2	0.0	0.0	3	0.0	0.08	0.0	0.0	910.372598015091;	%LU1 0 solar
	2	60924.9103448276	24369.96413793104	3	0.0	310.8413793103449	0.0	0.0	20257.72727092799;	%LV6 0 CCGT
	2	83926.24390243903	33570.497560975615	3	0.0	428.19512195121956	0.0	0.0	9225.00356108442;	%LV6 0 OCGT
	2	0.0	0.0	3	0.0	0.12	0.0	0.0	3085.7523764761218;	%LV6 0 offwind
	2	0.0	0.0	3	0.0	0.11999999999999998	0.0	0.0	3334.4874381358163;	%LV6 0 onwind
	2	0.0	0.0	3	0.0	0.0	0.0	0.0	7102.872920694035;	%LV6 0 ror
	2	0.0	0.0	3	0.0	0.08000000000000002	0.0	0.0	910.372598015091;	%LV6 0 solar
	2	60924.9103448276	24369.96413793104	3	0.0	310.8413793103449	0.0	0.0	20257.72727092799;	%ME1 0 CCGT
	2	83926.24390243903	33570.497560975615	3	0.0	428.19512195121956	0.0	0.0	9225.00356108442;	%ME1 0 OCGT
	2	27033.33333333333	10813.333333333332	3	0.0	98.3030303030303	0.0	0.0	87893.65502119702;	%ME1 0 lignite
	2	0.0	0.0	3	0.0	0.11999999999999998	0.0	0.0	2932.8557189201324;	%ME1 0 offwind
	2	0.0	0.0	3	0.0	0.12	0.0	0.0	3334.4874381358163;	%ME1 0 onwind
	2	0.0	0.0	3	0.0	0.0	0.0	0.0	7102.872920694035;	%ME1 0 ror
	2	0.0	0.0	3	0.0	0.08	0.0	0.0	910.372598015091;	%ME1 0 solar
	2	60924.9103448276	24369.96413793104	3	0.0	310.8413793103449	0.0	0.0	20257.72727092799;	%MK1 0 CCGT
	2	83926.24390243903	33570.497560975615	3	0.0	428.19512195121956	0.0	0.0	9225.00356108442;	%MK1 0 OCGT
	2	0.0	0.0	3	0.0	0.12	0.0	0.0	3334.4874381358163;	%MK1 0 onwind
	2	0.0	0.0	3	0.0	0.07999999999999999	0.0	0.0	910.3725980150908;	%MK1 0 solar
	2	74120.31790042373	29648.127160169493	3	0.0	378.1648872470598	0.0	0.0	20257.72727092799;	%NL1 0 CCGT
	2	83926.24390243903	33570.497560975615	3	0.0	428.19512195121956	0.0	0.0	9225.00356108442;	%NL1 0 OCGT
...
];
%% branch data
%	fbus	tbus	r	x	b	rateA	rateB	rateC	ratio	angle	status	angmin	angmax
mpc.branch = [
	1	18	0.009848253769131014	0.08075568090687432	2.055105533175459e-05	1698.1026117405274	1698.1026117405274	1698.1026117405274	0	0	1	-60	60;	%AL1 0 - GR1 0
	1	27	0.0030025768781929826	0.02462113040118246	1.0418231424248789e-05	2189.658630928575	2189.658630928575	2189.658630928575	0	0	1	-60	60;	%AL1 0 - ME1 0
	3	19	0.0018083930284160529	0.014828822833011634	3.763249569104315e-05	5362.429300233244	5362.429300233244	5362.429300233244	0	0	1	-60	60;	%BA1 0 - HR1 0
	3	27	0.0022858595658064302	0.018744048439612727	1.1892132809188925e-05	2681.214650116622	2681.214650116622	2681.214650116622	0	0	1	-60	60;	%BA1 0 - ME1 0
	3	34	0.004149698224123457	0.03402752543781235	1.439847111116458e-05	2189.658630928575	2189.658630928575	2189.658630928575	0	0	1	-60	60;	%BA1 0 - RS1 0
	4	15	0.0021392377588853096	0.01754174962285954	0.00013894357908419004	9473.625097078731	9473.625097078731	9473.625097078731	0	0	1	-60	60;	%BE1 0 - FR1 0
	4	25	0.007463517643991826	0.06120084468073299	5.220314041075356e-06	983.1120383760948	983.1120383760948	983.1120383760948	0	0	1	-60	60;	%BE1 0 - LU1 0
	4	29	0.0011984220022508625	0.009827060418457071	4.001332614924733e-05	6792.41044696211	6792.41044696211	6792.41044696211	0	0	1	-60	60;	%BE1 0 - NL1 0
	5	18	0.011809656492733411	0.09683918324041399	2.4644054643668527e-05	1698.1026117405274	1698.1026117405274	1698.1026117405274	0	0	1	-60	60;	%BG1 0 - GR1 0
	5	28	0.0074365203689532805	0.0609794670254169	1.5518318796486916e-05	1698.1026117405274	1698.1026117405274	1698.1026117405274	0	0	1	-60	60;	%BG1 0 - MK1 0
	5	33	0.0020229105724174743	0.016587866693823287	6.754163420971416e-05	6792.41044696211	6792.41044696211	6792.41044696211	0	0	1	-60	60;	%BG1 0 - RO1 0
	5	34	0.009266320797298841	0.07598383053785052	1.9336694188768876e-05	1698.1026117405274	1698.1026117405274	1698.1026117405274	0	0	1	-60	60;	%BG1 0 - RS1 0
	1	28	0.003649247216798554	0.02992382717774814	7.615145103871138e-06	1698.1026117405274	1698.1026117405274	1698.1026117405274	0	0	1	-60	60;	%AL1 0 - MK1 0
	6	8	0.0007631703989934744	0.006257997271746491	0.00040769593381994505	27169.64178784844	27169.64178784844	27169.64178784844	0	0	1	-60	60;	%CH1 0 - DE1 0
	6	15	0.001746686959247153	0.014322833065826655	0.00011995981004979816	9741.746562090395	9741.746562090395	9741.746562090395	0	0	1	-60	60;	%CH1 0 - FR1 0
	6	22	0.0024168599665192895	0.019818251725458175	0.00011953708173841214	8267.078504526253	8267.078504526253	8267.078504526253	0	0	1	-60	60;	%CH1 0 - IT1 0
	7	8	0.002780890333632855	0.022803300735789414	9.284932327339585e-05	6792.41044696211	6792.41044696211	6792.41044696211	0	0	1	-60	60;	%CZ1 0 - DE1 0
	7	31	0.003347784363454365	0.02745183178032579	4.6464078918691116e-05	4379.31726185715	4379.31726185715	4379.31726185715	0	0	1	-60	60;	%CZ1 0 - PL1 0
	7	37	0.0022035110440118957	0.018068790560897545	5.889802779608092e-05	6077.419873597678	6077.419873597678	6077.419873597678	0	0	1	-60	60;	%CZ1 0 - SK1 0
	8	9	0.0055751311403673546	0.04571607535101231	7.737754441889767e-05	4379.31726185715	4379.31726185715	4379.31726185715	0	0	1	-60	60;	%DE1 0 - DK1 0
	8	15	0.003052301449510847	0.02502887188598894	0.00019824710277172852	9473.625097078731	9473.625097078731	9473.625097078731	0	0	1	-60	60;	%DE1 0 - FR1 0
	8	25	0.003567833648762204	0.02925623591985007	3.056988125714905e-05	3440.892134316332	3440.892134316332	3440.892134316332	0	0	1	-60	60;	%DE1 0 - LU1 0
	8	29	0.0010137080559796212	0.008312406059032893	0.00013538413342828915	13584.82089392422	13584.82089392422	13584.82089392422	0	0	1	-60	60;	%DE1 0 - NL1 0
	1	34	0.005794692518950292	0.047516478655392394	2.010621214505574e-05	2189.658630928575	2189.658630928575	2189.658630928575	0	0	1	-60	60;	%AL1 0 - RS1 0
	8	31	0.004353603674522505	0.03569955013108455	0.00014535961741861056	6792.41044696211	6792.41044696211	6792.41044696211	0	0	1	-60	60;	%DE1 0 - PL1 0
	10	35	0.008840156449238027	0.07248928288375181	7.378954628448345e-05	3396.205223481055	3396.205223481055	3396.205223481055	0	0	1	-60	60;	%DK2 0 - SE2 0
	11	26	0.003946355190980939	0.0323601125660437	2.5984323908562167e-05	3016.3664813811993	3016.3664813811993	3016.3664813811993	0	0	1	-60	60;	%EE6 0 - LV6 0
	12	15	0.008738359575119186	0.07165454851597733	0.00012128016169455197	4379.31726185715	4379.31726185715	4379.31726185715	0	0	1	-60	60;	%ES1 0 - FR1 0
	12	32	0.0012062259975185962	0.00989105317965249	0.00019796854473826301	15059.488951488362	15059.488951488362	15059.488951488362	0	0	1	-60	60;	%ES1 0 - PT1 0
	14	35	0.00638205563753237	0.052332856227765435	5.3271567371009e-05	3396.205223481055	3396.205223481055	3396.205223481055	0	0	1	-60	60;	%FI2 0 - SE2 0
	15	22	0.005999890024650515	0.04919909820213423	0.0001354786999209816	5585.86385440963	5585.86385440963	5585.86385440963	0	0	1	-60	60;	%FR1 0 - IT1 0
	17	21	0.010361795849826232	0.08496672596857512	7.2474978884987885e-06	983.1120383760948	983.1120383760948	983.1120383760948	0	0	1	-60	60;	%GB5 0 - IE5 0
	18	28	0.004004202725752439	0.03283446235117	3.342342458088874e-05	3396.205223481055	3396.205223481055	3396.205223481055	0	0	1	-60	60;	%GR1 0 - MK1 0
	19	20	0.001988073686819386	0.016302204231918964	6.637848828712408e-05	6792.41044696211	6792.41044696211	6792.41044696211	0	0	1	-60	60;	%HR1 0 - HU1 0
	2	6	0.0026944375762084686	0.022094388124909443	8.996280886292391e-05	6792.41044696211	6792.41044696211	6792.41044696211	0	0	1	-60	60;	%AT1 0 - CH1 0
	19	34	0.009775397280548185	0.08015825770049513	2.0399020487482383e-05	1698.1026117405274	1698.1026117405274	1698.1026117405274	0	0	1	-60	60;	%HR1 0 - RS1 0
	19	36	0.001061017767836014	0.008700345696255314	2.8360127421173892e-05	6077.419873597677	6077.419873597677	6077.419873597677	0	0	1	-60	60;	%HR1 0 - SI1 0
	20	33	0.006636093665607568	0.054415968057982045	5.539204464291175e-05	3396.205223481055	3396.205223481055	3396.205223481055	0	0	1	-60	60;	%HU1 0 - RO1 0
	20	34	0.009655208499685108	0.07917270969741788	2.0148213964450305e-05	1698.1026117405274	1698.1026117405274	1698.1026117405274	0	0	1	-60	60;	%HU1 0 - RS1 0
	20	37	0.0020794721545383987	0.017051671667214868	1.7357532943642834e-05	3396.205223481055	3396.205223481055	3396.205223481055	0	0	1	-60	60;	%HU1 0 - SK1 0
	22	36	0.007514020690225535	0.06161496965984938	2.607187414447671e-05	2189.658630928575	2189.658630928575	2189.658630928575	0	0	1	-60	60;	%IT1 0 - SI1 0
	24	26	0.002102615191994796	0.017241444574357327	2.4612318201292353e-05	4021.8219751749325	4021.8219751749325	4021.8219751749325	0	0	1	-60	60;	%LT6 0 - LV6 0
	27	34	0.003126505250815498	0.025637343056687086	1.6265573015727845e-05	2681.214650116622	2681.214650116622	2681.214650116622	0	0	1	-60	60;	%ME1 0 - RS1 0
	28	34	0.003785008600601789	0.03103707052493467	3.1593792363861075e-05	3396.205223481055	3396.205223481055	3396.205223481055	0	0	1	-60	60;	%MK1 0 - RS1 0
	30	35	0.0024786328048168375	0.02032478899949807	9.516891246805635e-05	7283.966466150157	7283.966466150157	7283.966466150157	0	0	1	-60	60;	%NO2 0 - SE2 0
	2	7	0.0028351633943507356	0.02324833983367603	3.934938496653041e-05	4379.31726185715	4379.31726185715	4379.31726185715	0	0	1	-60	60;	%AT1 0 - CZ1 0
	31	37	0.004238372016881548	0.034754650538428696	3.5378055796455685e-05	3396.205223481055	3396.205223481055	3396.205223481055	0	0	1	-60	60;	%PL1 0 - SK1 0
	33	34	0.003324374066655655	0.027259867346576365	6.243488164499935e-05	5094.3078352215825	5094.3078352215825	5094.3078352215825	0	0	1	-60	60;	%RO1 0 - RS1 0
	2	8	0.0013316115224353564	0.010919214483969923	0.00024801282886009247	16042.600989864455	16042.600989864455	16042.600989864455	0	0	1	-60	60;	%AT1 0 - DE1 0
	2	20	0.004015691830712427	0.032928673011841894	5.573400251587286e-05	4379.31726185715	4379.31726185715	4379.31726185715	0	0	1	-60	60;	%AT1 0 - HU1 0
	2	22	0.04171419942875124	0.3420564353157602	7.2941885909999375e-06	491.5560191880474	491.5560191880474	491.5560191880474	0	0	1	-60	60;	%AT1 0 - IT1 0
	2	36	0.0020781020444500566	0.017040436764490463	2.2730714081766998e-05	3887.761242669102	3887.761242669102	3887.761242669102	0	0	1	-60	60;	%AT1 0 - SI1 0
];
%% dcline data
%	fbus	tbus	status	Pf	Pt	Qf	Qt	Vf	Vt	Pmin	Pmax	QminF	QmaxF	QminT	QmaxT	loss0	loss1
mpc.dcline = [
	22	18	1	0.0	0.0	0.0	0.0	1.0	1.0	-500.0	500.0	-500.0	500.0	-500.0	500.0	0.0	0.01;	%IT1 0 - GR1 0
	13	12	1	0.0	0.0	0.0	0.0	1.0	1.0	-400.0	400.0	-400.0	400.0	-400.0	400.0	0.0	0.01;	%ES4 0 - ES1 0
	22	23	1	0.0	0.0	0.0	0.0	1.0	1.0	-1000.0	1000.0	-1000.0	1000.0	-1000.0	1000.0	0.0	0.01;	%IT1 0 - IT3 0
	22	27	1	0.0	0.0	0.0	0.0	1.0	1.0	-1000.0	1000.0	-1000.0	1000.0	-1000.0	1000.0	0.0	0.01;	%IT1 0 - ME1 0
	15	12	1	0.0	0.0	0.0	0.0	1.0	1.0	-2000.0	2000.0	-2000.0	2000.0	-2000.0	2000.0	0.0	0.01;	%FR1 0 - ES1 0
	8	4	1	0.0	0.0	0.0	0.0	1.0	1.0	-1000.0	1000.0	-1000.0	1000.0	-1000.0	1000.0	0.0	0.01;	%DE1 0 - BE1 0
	16	29	1	0.0	0.0	0.0	0.0	1.0	1.0	-1000.0	1000.0	-1000.0	1000.0	-1000.0	1000.0	0.0	0.01;	%GB0 0 - NL1 0
	16	15	1	0.0	0.0	0.0	0.0	1.0	1.0	-2000.0	2000.0	-2000.0	2000.0	-2000.0	2000.0	0.0	0.01;	%GB0 0 - FR1 0
	24	35	1	0.0	0.0	0.0	0.0	1.0	1.0	-700.0	700.0	-700.0	700.0	-700.0	700.0	0.0	0.01;	%LT6 0 - SE2 0
	10	9	1	0.0	0.0	0.0	0.0	1.0	1.0	-600.0	600.0	-600.0	600.0	-600.0	600.0	0.0	0.01;	%DK2 0 - DK1 0
	10	8	1	0.0	0.0	0.0	0.0	1.0	1.0	-600.0	600.0	-600.0	600.0	-600.0	600.0	0.0	0.01;	%DK2 0 - DE1 0
	35	8	1	0.0	0.0	0.0	0.0	1.0	1.0	-600.0	600.0	-600.0	600.0	-600.0	600.0	0.0	0.01;	%SE2 0 - DE1 0
	31	35	1	0.0	0.0	0.0	0.0	1.0	1.0	-600.0	600.0	-600.0	600.0	-600.0	600.0	0.0	0.01;	%PL1 0 - SE2 0
	29	9	1	0.0	0.0	0.0	0.0	1.0	1.0	-700.0	700.0	-700.0	700.0	-700.0	700.0	0.0	0.01;	%NL1 0 - DK1 0
	29	30	1	0.0	0.0	0.0	0.0	1.0	1.0	-700.0	700.0	-700.0	700.0	-700.0	700.0	0.0	0.01;	%NL1 0 - NO2 0
	8	30	1	0.0	0.0	0.0	0.0	1.0	1.0	-1400.0	1400.0	-1400.0	1400.0	-1400.0	1400.0	0.0	0.01;	%DE1 0 - NO2 0
	16	17	1	0.0	0.0	0.0	0.0	1.0	1.0	-2501.0	2501.0	-2501.0	2501.0	-2501.0	2501.0	0.0	0.01;	%GB0 0 - GB5 0
	16	17	1	0.0	0.0	0.0	0.0	1.0	1.0	-250.0	250.0	-250.0	250.0	-250.0	250.0	0.0	0.01;	%GB0 0 - GB5 0
	16	21	1	0.0	0.0	0.0	0.0	1.0	1.0	-500.0	500.0	-500.0	500.0	-500.0	500.0	0.0	0.01;	%GB0 0 - IE5 0
	35	9	1	0.0	0.0	0.0	0.0	1.0	1.0	-250.0	250.0	-250.0	250.0	-250.0	250.0	0.0	0.01;	%SE2 0 - DK1 0
	35	9	1	0.0	0.0	0.0	0.0	1.0	1.0	-300.0	300.0	-300.0	300.0	-300.0	300.0	0.0	0.01;	%SE2 0 - DK1 0
	14	11	1	0.0	0.0	0.0	0.0	1.0	1.0	-600.0	600.0	-600.0	600.0	-600.0	600.0	0.0	0.01;	%FI2 0 - EE6 0
	14	11	1	0.0	0.0	0.0	0.0	1.0	1.0	-650.0	650.0	-650.0	650.0	-650.0	650.0	0.0	0.01;	%FI2 0 - EE6 0
	35	14	1	0.0	0.0	0.0	0.0	1.0	1.0	-800.0	800.0	-800.0	800.0	-800.0	800.0	0.0	0.01;	%SE2 0 - FI2 0
	35	14	1	0.0	0.0	0.0	0.0	1.0	1.0	-500.0	500.0	-500.0	500.0	-500.0	500.0	0.0	0.01;	%SE2 0 - FI2 0
	12	15	1	0.0	0.0	0.0	0.0	1.0	1.0	-2200.0	2200.0	-2200.0	2200.0	-2200.0	2200.0	0.0	0.01;	%ES1 0 - FR1 0
	22	15	1	0.0	0.0	0.0	0.0	1.0	1.0	-1000.0	1000.0	-1000.0	1000.0	-1000.0	1000.0	0.0	0.01;	%IT1 0 - FR1 0
	15	16	1	0.0	0.0	0.0	0.0	1.0	1.0	-1000.0	1000.0	-1000.0	1000.0	-1000.0	1000.0	0.0	0.01;	%FR1 0 - GB0 0
	16	4	1	0.0	0.0	0.0	0.0	1.0	1.0	-1000.0	1000.0	-1000.0	1000.0	-1000.0	1000.0	0.0	0.01;	%GB0 0 - BE1 0
	16	15	1	0.0	0.0	0.0	0.0	1.0	1.0	-1400.0	1400.0	-1400.0	1400.0	-1400.0	1400.0	0.0	0.01;	%GB0 0 - FR1 0
	16	9	1	0.0	0.0	0.0	0.0	1.0	1.0	-1400.0	1400.0	-1400.0	1400.0	-1400.0	1400.0	0.0	0.01;	%GB0 0 - DK1 0
	22	6	1	0.0	0.0	0.0	0.0	1.0	1.0	-1000.0	1000.0	-1000.0	1000.0	-1000.0	1000.0	0.0	0.01;	%IT1 0 - CH1 0
	30	16	1	0.0	0.0	0.0	0.0	1.0	1.0	-1400.0	1400.0	-1400.0	1400.0	-1400.0	1400.0	0.0	0.01;	%NO2 0 - GB0 0
	16	15	1	0.0	0.0	0.0	0.0	1.0	1.0	-2000.0	2000.0	-2000.0	2000.0	-2000.0	2000.0	0.0	0.01;	%GB0 0 - FR1 0
	16	15	1	0.0	0.0	0.0	0.0	1.0	1.0	-1400.0	1400.0	-1400.0	1400.0	-1400.0	1400.0	0.0	0.01;	%GB0 0 - FR1 0
	16	8	1	0.0	0.0	0.0	0.0	1.0	1.0	-1400.0	1400.0	-1400.0	1400.0	-1400.0	1400.0	0.0	0.01;	%GB0 0 - DE1 0
	21	16	1	0.0	0.0	0.0	0.0	1.0	1.0	-500.0	500.0	-500.0	500.0	-500.0	500.0	0.0	0.01;	%IE5 0 - GB0 0
	21	15	1	0.0	0.0	0.0	0.0	1.0	1.0	-700.0	700.0	-700.0	700.0	-700.0	700.0	0.0	0.01;	%IE5 0 - FR1 0
	31	24	1	0.0	0.0	0.0	0.0	1.0	1.0	-2000.0	2000.0	-2000.0	2000.0	-2000.0	2000.0	0.0	0.01;	%PL1 0 - LT6 0
	22	23	1	0.0	0.0	0.0	0.0	1.0	1.0	-300.0	300.0	-300.0	300.0	-300.0	300.0	0.0	0.01;	%IT1 0 - IT3 0
	8	35	1	0.0	0.0	0.0	0.0	1.0	1.0	-700.0	700.0	-700.0	700.0	-700.0	700.0	0.0	0.01;	%DE1 0 - SE2 0
	9	30	1	0.0	0.0	0.0	0.0	1.0	1.0	-1140.0	1140.0	-1140.0	1140.0	-1140.0	1140.0	0.0	0.01;	%DK1 0 - NO2 0
	30	16	1	0.0	0.0	0.0	0.0	1.0	1.0	-0.0	0.0	-0.0	0.0	-0.0	0.0	0.0	0.01;	%NO2 0 - GB0 0
];
